Seed number: 123456
Input file: log.123456.scriptlog
Output file: output_file_log.123456.scriptlog
Parser result: Not converged. 

Seed number: 123457
Input file: log.123457.scriptlog
Output file: output_file_log.123457.scriptlog
Parser result: Converged. 

Seed number: 123458
Input file: log.123458.scriptlog
Output file: output_file_log.123458.scriptlog
Parser result: Converged. 

Seed number: 123459
Input file: log.123459.scriptlog
Output file: output_file_log.123459.scriptlog
Parser result: Converged. 

Seed number: 123460
Input file: log.123460.scriptlog
Output file: output_file_log.123460.scriptlog
Parser result: Converged. 

Seed number: 123461
Input file: log.123461.scriptlog
Output file: output_file_log.123461.scriptlog
Parser result: Converged. 

Seed number: 123462
Input file: log.123462.scriptlog
Output file: output_file_log.123462.scriptlog
Parser result: Converged. 

Seed number: 123463
Input file: log.123463.scriptlog
Output file: output_file_log.123463.scriptlog
Parser result: Converged. 

Seed number: 123464
Input file: log.123464.scriptlog
Output file: output_file_log.123464.scriptlog
Parser result: Not converged. 

Seed number: 123465
Input file: log.123465.scriptlog
Output file: output_file_log.123465.scriptlog
Parser result: Not converged. 

Seed number: 123466
Input file: log.123466.scriptlog
Output file: output_file_log.123466.scriptlog
Parser result: Not converged. 

Seed number: 123467
Input file: log.123467.scriptlog
Output file: output_file_log.123467.scriptlog
Parser result: Not converged. 

Seed number: 123468
Input file: log.123468.scriptlog
Output file: output_file_log.123468.scriptlog
Parser result: Converged. 

Seed number: 123469
Input file: log.123469.scriptlog
Output file: output_file_log.123469.scriptlog
Parser result: Not converged. 

Seed number: 123470
Input file: log.123470.scriptlog
Output file: output_file_log.123470.scriptlog
Parser result: Converged. 

Seed number: 123471
Input file: log.123471.scriptlog
Output file: output_file_log.123471.scriptlog
Parser result: Converged. 

Seed number: 123472
Input file: log.123472.scriptlog
Output file: output_file_log.123472.scriptlog
Parser result: Not converged. 

Seed number: 123473
Input file: log.123473.scriptlog
Output file: output_file_log.123473.scriptlog
Parser result: Converged. 

Seed number: 123474
Input file: log.123474.scriptlog
Output file: output_file_log.123474.scriptlog
Parser result: Converged. 

Seed number: 123475
Input file: log.123475.scriptlog
Output file: output_file_log.123475.scriptlog
Parser result: Not converged. 

Seed number: 123476
Input file: log.123476.scriptlog
Output file: output_file_log.123476.scriptlog
Parser result: Not converged. 

Seed number: 123477
Input file: log.123477.scriptlog
Output file: output_file_log.123477.scriptlog
Parser result: Not converged. 

Seed number: 123478
Input file: log.123478.scriptlog
Output file: output_file_log.123478.scriptlog
Parser result: Not converged. 

Seed number: 123479
Input file: log.123479.scriptlog
Output file: output_file_log.123479.scriptlog
Parser result: Not converged. 

Seed number: 123480
Input file: log.123480.scriptlog
Seed number: 123481
Input file: log.123481.scriptlog
Seed number: 123482
Input file: log.123482.scriptlog
Seed number: 123483
Input file: log.123483.scriptlog
Seed number: 123484
Input file: log.123484.scriptlog
Seed number: 123485
Input file: log.123485.scriptlog
Seed number: 123486
Input file: log.123486.scriptlog
Seed number: 123487
Input file: log.123487.scriptlog
Seed number: 123488
Input file: log.123488.scriptlog
Seed number: 123489
Input file: log.123489.scriptlog
Seed number: 123490
Input file: log.123490.scriptlog
Seed number: 123491
Input file: log.123491.scriptlog
Seed number: 123492
Input file: log.123492.scriptlog
Seed number: 123493
Input file: log.123493.scriptlog
Seed number: 123494
Input file: log.123494.scriptlog
Seed number: 123495
Input file: log.123495.scriptlog
Seed number: 123496
Input file: log.123496.scriptlog
Seed number: 123497
Input file: log.123497.scriptlog
Seed number: 123498
Input file: log.123498.scriptlog
Seed number: 123499
Input file: log.123499.scriptlog
Seed number: 123500
Input file: log.123500.scriptlog
Seed number: 123501
Input file: log.123501.scriptlog
Seed number: 123502
Input file: log.123502.scriptlog
Seed number: 123503
Input file: log.123503.scriptlog
Seed number: 123504
Input file: log.123504.scriptlog
Seed number: 123505
Input file: log.123505.scriptlog
Seed number: 123506
Input file: log.123506.scriptlog
Seed number: 123507
Input file: log.123507.scriptlog
Seed number: 123508
Input file: log.123508.scriptlog
Seed number: 123509
Input file: log.123509.scriptlog
Seed number: 123510
Input file: log.123510.scriptlog
Seed number: 123511
Input file: log.123511.scriptlog
Seed number: 123512
Input file: log.123512.scriptlog
Seed number: 123513
Input file: log.123513.scriptlog
Seed number: 123514
Input file: log.123514.scriptlog
Seed number: 123515
Input file: log.123515.scriptlog
Seed number: 123516
Input file: log.123516.scriptlog
Seed number: 123517
Input file: log.123517.scriptlog
Seed number: 123518
Input file: log.123518.scriptlog
Seed number: 123519
Input file: log.123519.scriptlog
Seed number: 123520
Input file: log.123520.scriptlog
Seed number: 123521
Input file: log.123521.scriptlog
Seed number: 123522
Input file: log.123522.scriptlog
Seed number: 123523
Input file: log.123523.scriptlog
Seed number: 123524
Input file: log.123524.scriptlog
Seed number: 123525
Input file: log.123525.scriptlog
Seed number: 123526
Input file: log.123526.scriptlog
Seed number: 123527
Input file: log.123527.scriptlog
Seed number: 123528
Input file: log.123528.scriptlog
Seed number: 123529
Input file: log.123529.scriptlog
Seed number: 123530
Input file: log.123530.scriptlog
Seed number: 123531
Input file: log.123531.scriptlog
Seed number: 123532
Input file: log.123532.scriptlog
Seed number: 123533
Input file: log.123533.scriptlog
Seed number: 123534
Input file: log.123534.scriptlog
Seed number: 123535
Input file: log.123535.scriptlog
Seed number: 123536
Input file: log.123536.scriptlog
Seed number: 123537
Input file: log.123537.scriptlog
Seed number: 123538
Input file: log.123538.scriptlog
Seed number: 123539
Input file: log.123539.scriptlog
Seed number: 123540
Input file: log.123540.scriptlog
Seed number: 123541
Input file: log.123541.scriptlog
Seed number: 123542
Input file: log.123542.scriptlog
Seed number: 123543
Input file: log.123543.scriptlog
Seed number: 123544
Input file: log.123544.scriptlog
Seed number: 123545
Input file: log.123545.scriptlog
Seed number: 123546
Input file: log.123546.scriptlog
Seed number: 123547
Input file: log.123547.scriptlog
Seed number: 123548
Input file: log.123548.scriptlog
Seed number: 123549
Input file: log.123549.scriptlog
Seed number: 123550
Input file: log.123550.scriptlog
Seed number: 123551
Input file: log.123551.scriptlog
Seed number: 123552
Input file: log.123552.scriptlog
Seed number: 123553
Input file: log.123553.scriptlog
Seed number: 123554
Input file: log.123554.scriptlog
Seed number: 123555
Input file: log.123555.scriptlog
Seed number: 123556
Input file: log.123556.scriptlog
Seed number: 123557
Input file: log.123557.scriptlog
Seed number: 123558
Input file: log.123558.scriptlog
Seed number: 123559
Input file: log.123559.scriptlog
Seed number: 123560
Input file: log.123560.scriptlog
Seed number: 123561
Input file: log.123561.scriptlog
Seed number: 123562
Input file: log.123562.scriptlog
Seed number: 123563
Input file: log.123563.scriptlog
Seed number: 123564
Input file: log.123564.scriptlog
Seed number: 123565
Input file: log.123565.scriptlog
Seed number: 123566
Input file: log.123566.scriptlog
Seed number: 123567
Input file: log.123567.scriptlog
Seed number: 123568
Input file: log.123568.scriptlog
Seed number: 123569
Input file: log.123569.scriptlog
Seed number: 123570
Input file: log.123570.scriptlog
Seed number: 123571
Input file: log.123571.scriptlog
Seed number: 123572
Input file: log.123572.scriptlog
Seed number: 123573
Input file: log.123573.scriptlog
Seed number: 123574
Input file: log.123574.scriptlog
Seed number: 123575
Input file: log.123575.scriptlog
Seed number: 123576
Input file: log.123576.scriptlog
Seed number: 123577
Input file: log.123577.scriptlog
Seed number: 123578
Input file: log.123578.scriptlog
Seed number: 123579
Input file: log.123579.scriptlog
Seed number: 123580
Input file: log.123580.scriptlog
number of converged: 12
number of not converged: 12
