Seed number: 123456
Input file: log.123456.scriptlog
Output file: output_file_log.123456.scriptlog
Parser result: Converged. 

Seed number: 123457
Input file: log.123457.scriptlog
Output file: output_file_log.123457.scriptlog
Parser result: Converged. 

Seed number: 123458
Input file: log.123458.scriptlog
Output file: output_file_log.123458.scriptlog
Parser result: Converged. 

Seed number: 123459
Input file: log.123459.scriptlog
Output file: output_file_log.123459.scriptlog
Parser result: Converged. 

Seed number: 123460
Input file: log.123460.scriptlog
Output file: output_file_log.123460.scriptlog
Parser result: Converged. 

Seed number: 123461
Input file: log.123461.scriptlog
Output file: output_file_log.123461.scriptlog
Parser result: Converged. 

Seed number: 123462
Input file: log.123462.scriptlog
Output file: output_file_log.123462.scriptlog
Parser result: Converged. 

Seed number: 123463
Input file: log.123463.scriptlog
Output file: output_file_log.123463.scriptlog
Parser result: Converged. 

Seed number: 123464
Input file: log.123464.scriptlog
Output file: output_file_log.123464.scriptlog
Parser result: Converged. 

Seed number: 123465
Input file: log.123465.scriptlog
Output file: output_file_log.123465.scriptlog
Parser result: Converged. 

Seed number: 123466
Input file: log.123466.scriptlog
Output file: output_file_log.123466.scriptlog
Parser result: Converged. 

Seed number: 123467
Input file: log.123467.scriptlog
Output file: output_file_log.123467.scriptlog
Parser result: Converged. 

Seed number: 123468
Input file: log.123468.scriptlog
Output file: output_file_log.123468.scriptlog
Parser result: Converged. 

Seed number: 123469
Input file: log.123469.scriptlog
Output file: output_file_log.123469.scriptlog
Parser result: Converged. 

Seed number: 123470
Input file: log.123470.scriptlog
Output file: output_file_log.123470.scriptlog
Parser result: Converged. 

Seed number: 123471
Input file: log.123471.scriptlog
Output file: output_file_log.123471.scriptlog
Parser result: Converged. 

Seed number: 123472
Input file: log.123472.scriptlog
Output file: output_file_log.123472.scriptlog
Parser result: Converged. 

Seed number: 123473
Input file: log.123473.scriptlog
Output file: output_file_log.123473.scriptlog
Parser result: Converged. 

Seed number: 123474
Input file: log.123474.scriptlog
Output file: output_file_log.123474.scriptlog
Parser result: Converged. 

Seed number: 123475
Input file: log.123475.scriptlog
Output file: output_file_log.123475.scriptlog
Parser result: Converged. 

number of converged: 20
number of not converged: 0
